test/TEST190523/v_h21.csv
Bus, BasekV, Node1, Magnitude1, Angle1, pu1, Node2, Magnitude2, Angle2, pu2, Node3, Magnitude3, Angle3, pu3
"SOURCEBUS", 69, 1,    41811.2,   -0.3,    1.0496, 2,      41794, -120.4,    1.0491, 3,    41762.6,  119.7,    1.0483
"BUSMVMAI1", 12.8, 1,    7750.02,  -30.9,    1.0487, 2,    7753.15, -151.1,    1.0491, 3,     7732.7,   88.8,    1.0464
"BUSMVMAI136", 12.505, 1,       7750,  -30.9,    1.0734, 2,    7753.06, -151.1,    1.0738, 3,    7732.62,   88.8,     1.071
"BUSMVMAI3", 12.505, 1,    7729.54,  -31.6,    1.0706, 2,     7679.2, -151.7,    1.0636, 3,    7666.73,   87.5,    1.0619
"BUSMVMAI2", 12.505, 1,    7729.48,  -31.6,    1.0706, 2,       7679, -151.7,    1.0636, 3,    7666.55,   87.5,    1.0618
"BUSMVMAI4", 12.505, 1,    7728.92,  -31.6,    1.0705, 2,    7676.92, -151.7,    1.0633, 3,    7664.74,   87.4,    1.0616
"BUSMVMAI46", 12.505, 1,    7729.56,  -31.6,    1.0706, 2,    7679.29, -151.7,    1.0636, 3,     7666.8,   87.5,    1.0619
"BUSMVMAI5", 12.505, 1,    7728.15,  -31.6,    1.0704, 2,    7674.75, -151.7,     1.063, 3,    7662.81,   87.4,    1.0613
"BUSMVMAI862", 12.505, 1,    7728.91,  -31.6,    1.0705, 0, 0, 0, 0, 0, 0, 0, 0
"BUSMVMAI6", 12.505, 1,    7727.99,  -31.6,    1.0704, 2,    7674.35, -151.7,    1.0629, 3,    7662.47,   87.4,    1.0613
"BUSMVMAI859", 12.505, 3,    7662.78,   87.4,    1.0613, 0, 0, 0, 0, 0, 0, 0, 0
"BUSMVMAI860", 12.505, 3,    7662.81,   87.4,    1.0613, 0, 0, 0, 0, 0, 0, 0, 0
"BUSMVMAI7", 12.505, 1,    7727.01,  -31.6,    1.0702, 2,    7672.61, -151.7,    1.0627, 3,    7660.72,   87.4,     1.061
"BUSMVMAI8", 12.505, 1,    7727.09,  -31.6,    1.0702, 2,    7669.88, -151.8,    1.0623, 3,    7659.64,   87.3,    1.0609
"BUSMVMAI9", 12.505, 1,    7727.01,  -31.6,    1.0702, 2,    7672.61, -151.7,    1.0627, 3,    7660.72,   87.4,     1.061
"BUSMVMAI10", 12.505, 1,    7726.39,  -31.6,    1.0701, 2,     7672.6, -151.7,    1.0627, 3,     7660.2,   87.4,     1.061
"BUSMVMAI56", 12.505, 1,     7726.7,  -31.6,    1.0702, 2,    7672.61, -151.7,    1.0627, 3,    7660.46,   87.4,     1.061
"BUSMVMAI861", 12.505, 3,     7662.7,   87.4,    1.0613, 0, 0, 0, 0, 0, 0, 0, 0
"BUSMVMAI12", 12.505, 1,    7727.16,  -31.6,    1.0702, 2,    7667.66, -151.8,     1.062, 3,    7658.76,   87.3,    1.0608
"BUSMVMAI51", 12.505, 1,    7727.09,  -31.6,    1.0702, 2,    7669.88, -151.8,    1.0623, 3,    7659.64,   87.3,    1.0609
"BUSMVMAI2171", 12.505, 1,    7727.08,  -31.6,    1.0702, 0, 0, 0, 0, 0, 0, 0, 0
"BUSMVMAI863", 12.505, 3,    7662.64,   87.4,    1.0613, 0, 0, 0, 0, 0, 0, 0, 0
"BUSMVMAI2165", 12.505, 3,    7660.72,   87.4,     1.061, 0, 0, 0, 0, 0, 0, 0, 0
"BUSMVMAI694", 12.505, 1,    7727.01,  -31.6,    1.0702, 2,    7672.61, -151.7,    1.0627, 3,    7660.72,   87.4,     1.061
"BUSMVMAI122", 12.505, 1,    7726.36,  -31.6,    1.0701, 2,     7672.6, -151.7,    1.0627, 3,    7660.17,   87.4,     1.061
"BUSMVMAI11", 12.505, 1,    7727.15,  -31.6,    1.0702, 2,    7667.65, -151.8,     1.062, 3,    7658.76,   87.3,    1.0608
"BUSMVMAI13", 12.505, 1,    7727.15,  -31.6,    1.0702, 2,    7667.63, -151.8,     1.062, 3,    7658.77,   87.3,    1.0608
"BUSMVMAI18", 12.505, 1,    7727.19,  -31.6,    1.0702, 2,    7666.84, -151.8,    1.0619, 3,    7658.42,   87.3,    1.0607
"BUSMVMAI14", 12.505, 1,    7727.14,  -31.6,    1.0702, 2,    7667.57, -151.8,     1.062, 3,    7658.78,   87.3,    1.0608
"BUSMVMAI15", 12.505, 1,    7727.14,  -31.6,    1.0702, 2,    7667.51, -151.8,     1.062, 3,     7658.8,   87.3,    1.0608
"BUSMVMAI16", 12.505, 1,    7727.14,  -31.6,    1.0702, 2,    7667.51, -151.8,     1.062, 3,    7658.79,   87.3,    1.0608
"BUSMVMAI2166", 12.505, 2,     7667.5, -151.8,     1.062, 0, 0, 0, 0, 0, 0, 0, 0
"BUSMVMAI2172", 12.505, 1,    7728.91,  -31.6,    1.0705, 0, 0, 0, 0, 0, 0, 0, 0
"BUSMVMAI864", 12.505, 3,    7662.59,   87.4,    1.0613, 0, 0, 0, 0, 0, 0, 0, 0
"BUSMVMAI865", 12.505, 3,    7662.51,   87.4,    1.0613, 0, 0, 0, 0, 0, 0, 0, 0
"BUSMVMAI17", 12.505, 1,    7727.14,  -31.6,    1.0702, 2,    7667.51, -151.8,     1.062, 3,    7658.79,   87.3,    1.0608
"BUSMVMAI695", 12.505, 1,    7727.14,  -31.6,    1.0702, 2,    7667.51, -151.8,     1.062, 3,    7658.79,   87.3,    1.0608
"BUSMVMAI866", 12.505, 3,    7662.51,   87.4,    1.0613, 0, 0, 0, 0, 0, 0, 0, 0
"BUSMVMAI2176", 12.505, 3,    7662.51,   87.4,    1.0613, 0, 0, 0, 0, 0, 0, 0, 0
"BUSMVMAI2177", 12.505, 3,     7662.5,   87.4,    1.0613, 0, 0, 0, 0, 0, 0, 0, 0
"BUSMVMAI2178", 12.505, 3,    7662.46,   87.4,    1.0613, 0, 0, 0, 0, 0, 0, 0, 0
"BUSMVMAI19", 12.505, 1,    7727.26,  -31.7,    1.0703, 2,    7665.37, -151.8,    1.0617, 3,    7657.82,   87.3,    1.0606
"BUSMVMAI20", 12.505, 1,    7727.36,  -31.7,    1.0703, 2,    7663.29, -151.8,    1.0614, 3,    7656.96,   87.3,    1.0605
"BUSMVMAI53", 12.505, 1,    7727.26,  -31.7,    1.0703, 2,    7665.37, -151.8,    1.0617, 3,    7657.82,   87.3,    1.0606
"BUSMVMAI21", 12.505, 1,    7727.46,  -31.7,    1.0703, 2,     7661.1, -151.8,    1.0611, 3,    7656.07,   87.2,    1.0604
"BUSMVMAI22", 12.505, 1,    7727.58,  -31.7,    1.0703, 2,    7658.54, -151.8,    1.0607, 3,    7655.04,   87.2,    1.0603
"BUSMVMAI23", 12.505, 1,    7727.46,  -31.7,    1.0703, 2,     7661.1, -151.8,    1.0611, 3,    7656.07,   87.2,    1.0604
"BUSMVMAI25", 12.505, 1,     7727.7,  -31.7,    1.0703, 2,    7655.89, -151.8,    1.0604, 3,    7653.99,   87.2,    1.0601
"BUSMVMAI52", 12.505, 1,    7727.58,  -31.7,    1.0703, 2,    7658.54, -151.8,    1.0607, 3,    7655.04,   87.2,    1.0603
"BUSMVMAI54", 12.505, 1,    7727.58,  -31.7,    1.0703, 2,    7658.54, -151.8,    1.0607, 3,    7655.04,   87.2,    1.0603
"BUSMVMAI55", 12.505, 1,    7727.58,  -31.7,    1.0703, 2,    7658.54, -151.8,    1.0607, 3,    7655.04,   87.2,    1.0603
"BUSMVMAI696", 12.505, 1,    7727.46,  -31.7,    1.0703, 2,     7661.1, -151.8,    1.0611, 3,    7656.07,   87.2,    1.0604
"BUSMVMAI24", 12.505, 1,    7727.71,  -31.7,    1.0703, 2,    7655.64, -151.8,    1.0603, 3,    7653.89,   87.2,    1.0601
"BUSMVMAI26", 12.505, 1,    7727.83,  -31.7,    1.0703, 2,       7653, -151.9,      1.06, 3,    7652.84,   87.1,      1.06
"BUSMVMAI49", 12.505, 1,     7727.7,  -31.7,    1.0703, 2,    7655.89, -151.8,    1.0604, 3,    7653.99,   87.2,    1.0601
"BUSMVMAI50", 12.505, 1,     7727.7,  -31.7,    1.0703, 2,    7655.89, -151.8,    1.0604, 3,    7653.98,   87.2,    1.0601
"BUSMVMAI27", 12.505, 1,    7727.81,  -31.7,    1.0703, 2,    7653.01, -151.9,      1.06, 3,    7652.83,   87.1,    1.0599
"BUSMVMAI28", 12.505, 1,    7727.92,  -31.7,    1.0703, 2,    7650.98, -151.9,    1.0597, 3,    7652.05,   87.1,    1.0598
"BUSMVMAI29", 12.505, 1,    7727.79,  -31.7,    1.0703, 2,    7653.02, -151.9,      1.06, 3,    7652.82,   87.1,    1.0599
"BUSMVMAI31", 12.505, 1,    7728.04,  -31.7,    1.0704, 2,    7648.63, -151.9,    1.0594, 3,    7651.14,   87.1,    1.0597
"BUSMVMAI30", 12.505, 1,    7727.77,  -31.7,    1.0703, 2,    7653.04, -151.9,      1.06, 3,    7652.81,   87.1,    1.0599
"BUSMVMAI34", 12.505, 1,    7727.75,  -31.7,    1.0703, 2,    7653.05, -151.9,      1.06, 3,     7652.8,   87.1,    1.0599
"BUSMVMAI867", 12.505, 1,    7727.98,  -31.7,    1.0704, 0, 0, 0, 0, 0, 0, 0, 0
"BUSMVMAI43", 12.505, 1,    7728.04,  -31.7,    1.0704, 2,    7648.57, -151.9,    1.0594, 3,    7651.12,   87.1,    1.0597
"BUSMVMAI871", 12.505, 2,    7648.63, -151.9,    1.0594, 0, 0, 0, 0, 0, 0, 0, 0
"BUSMVMAI33", 12.505, 1,    7728.09,  -31.7,    1.0704, 2,     7647.9, -151.9,    1.0593, 3,    7650.87,   87.1,    1.0597
"BUSMVMAI32", 12.505, 1,    7728.22,  -31.7,    1.0704, 2,    7645.87, -151.9,     1.059, 3,    7650.11,   87.0,    1.0596
"BUSMVMAI37", 12.505, 1,    7728.37,  -31.7,    1.0704, 2,     7643.1, -151.9,    1.0586, 3,    7649.11,   87.0,    1.0594
"BUSMVMAI44", 12.505, 1,    7728.05,  -31.7,    1.0704, 2,    7648.52, -151.9,    1.0594, 3,     7651.1,   87.1,    1.0597
"BUSMVMAI35", 12.505, 1,    7727.75,  -31.7,    1.0703, 2,    7653.05, -151.9,      1.06, 3,    7652.79,   87.1,    1.0599
"BUSMVMAI36", 12.505, 1,    7727.76,  -31.7,    1.0703, 2,    7653.05, -151.9,      1.06, 3,    7652.79,   87.1,    1.0599
"BUSMVMAI869", 12.505, 1,    7727.97,  -31.7,    1.0704, 0, 0, 0, 0, 0, 0, 0, 0
"BUSMVMAI38", 12.505, 1,     7728.5,  -31.7,    1.0704, 2,     7640.9, -151.9,    1.0583, 3,    7648.33,   87.0,    1.0593
"BUSMVMAI2181", 12.505, 1,    7728.36,  -31.7,    1.0704, 0, 0, 0, 0, 0, 0, 0, 0
"BUSMVMAI868", 12.505, 1,    7727.86,  -31.7,    1.0703, 0, 0, 0, 0, 0, 0, 0, 0
"BUSMVMAI870", 12.505, 1,    7727.75,  -31.7,    1.0703, 0, 0, 0, 0, 0, 0, 0, 0
"BUSMVMAI39", 12.505, 1,    7728.53,  -31.7,    1.0704, 2,    7640.88, -151.9,    1.0583, 3,    7648.27,   87.0,    1.0593
"BUSMVMAI40", 12.505, 1,    7728.58,  -31.7,    1.0704, 2,    7638.74, -152.0,     1.058, 3,     7647.6,   87.0,    1.0592
"BUSMVMAI697", 12.505, 1,    7728.57,  -31.7,    1.0704, 2,     7640.9, -151.9,    1.0583, 3,     7648.1,   87.0,    1.0593
"BUSMVMAI41", 12.505, 1,    7728.68,  -31.7,    1.0705, 2,    7636.26, -152.0,    1.0577, 3,    7646.75,   86.9,    1.0591
"BUSMVMAI42", 12.505, 1,     7728.7,  -31.7,    1.0705, 2,    7636.25, -152.0,    1.0577, 3,    7646.73,   86.9,    1.0591
"BUSMVMAI48", 12.505, 1,    7728.73,  -31.7,    1.0705, 2,     7634.2, -152.0,    1.0574, 3,    7646.07,   86.9,     1.059
"BUSMVMAI303", 12.505, 1,    7728.71,  -31.7,    1.0705, 2,    7635.23, -152.0,    1.0575, 3,    7646.41,   86.9,    1.0591
"BUSMVMAI45", 12.505, 1,    7728.71,  -31.7,    1.0705, 2,    7636.24, -152.0,    1.0577, 3,    7646.71,   86.9,    1.0591
"BUSMVMAI701", 12.505, 1,    7728.71,  -31.7,    1.0705, 2,    7636.25, -152.0,    1.0577, 3,    7646.69,   86.9,    1.0591
"BUSMVMAI47", 12.505, 1,    7729.81,  -31.6,    1.0706, 2,    7680.21, -151.7,    1.0637, 3,     7667.6,   87.5,     1.062
"BUSMVMAI179", 12.505, 1,    7729.69,  -31.6,    1.0706, 2,    7679.75, -151.7,    1.0637, 3,     7667.2,   87.5,    1.0619
"BUSMVMAI160", 12.505, 1,    7730.41,  -31.6,    1.0707, 2,     7682.4, -151.7,     1.064, 3,    7669.52,   87.5,    1.0623
"BUSMVMAI1103", 12.505, 1,    7728.66,  -31.7,    1.0705, 0, 0, 0, 0, 0, 0, 0, 0
"BUSMVMAI259", 12.505, 1,    7728.82,  -31.7,    1.0705, 2,    7633.14, -152.0,    1.0572, 3,    7645.77,   86.9,     1.059
"BUSMVMAI304", 12.505, 1,    7728.73,  -31.7,    1.0705, 2,     7634.2, -152.0,    1.0574, 3,    7646.07,   86.9,     1.059
"BUSMVMAI702", 12.505, 1,     7727.7,  -31.7,    1.0703, 2,     7655.9, -151.8,    1.0604, 3,    7653.98,   87.2,    1.0601
"BUSMVMAI58", 12.505, 1,    7725.96,  -31.6,    1.0701, 2,     7672.6, -151.7,    1.0627, 3,    7659.83,   87.4,    1.0609
"BUSMVMAI57", 12.505, 1,     7724.5,  -31.7,    1.0699, 2,    7672.59, -151.7,    1.0627, 3,    7658.58,   87.4,    1.0607
"BUSMVMAI60", 12.505, 1,    7723.88,  -31.7,    1.0698, 2,    7672.59, -151.7,    1.0627, 3,    7658.07,   87.4,    1.0607
"BUSMVMAI703", 12.505, 1,     7724.5,  -31.7,    1.0699, 2,     7672.6, -151.7,    1.0627, 3,    7658.56,   87.4,    1.0607
"BUSMVMAI123", 12.505, 1,    7726.32,  -31.6,    1.0701, 2,     7672.6, -151.7,    1.0627, 3,    7660.14,   87.4,     1.061
"BUSMVMAI59", 12.505, 1,       7723,  -31.7,    1.0697, 2,    7672.64, -151.7,    1.0627, 3,    7657.52,   87.4,    1.0606
"BUSMVMAI61", 12.505, 1,    7721.52,  -31.7,    1.0695, 2,    7672.72, -151.8,    1.0627, 3,    7656.61,   87.4,    1.0605
"BUSMVMAI63", 12.505, 1,    7723.93,  -31.7,    1.0698, 2,    7672.56, -151.7,    1.0627, 3,    7657.99,   87.4,    1.0607
"BUSMVMAI874", 12.505, 3,    7658.07,   87.4,    1.0607, 0, 0, 0, 0, 0, 0, 0, 0
"BUSMVMAI62", 12.505, 1,    7720.06,  -31.7,    1.0693, 2,    7672.74, -151.8,    1.0627, 3,    7655.69,   87.4,    1.0603
"BUSMVMAI64", 12.505, 1,    7718.45,  -31.7,     1.069, 2,    7672.84, -151.8,    1.0627, 3,       7655,   87.4,    1.0602
"BUSMVMAI942", 12.505, 3,    7655.69,   87.4,    1.0603, 0, 0, 0, 0, 0, 0, 0, 0
"BUSMVMAI873", 12.505, 3,    7655.68,   87.4,    1.0603, 0, 0, 0, 0, 0, 0, 0, 0
"BUSMVMAI872", 12.505, 3,    7655.32,   87.4,    1.0603, 0, 0, 0, 0, 0, 0, 0, 0
"BUSMVMAI880", 12.505, 3,    7655.31,   87.4,    1.0603, 0, 0, 0, 0, 0, 0, 0, 0
"BUSMVMAI945", 12.505, 3,    7657.97,   87.4,    1.0607, 0, 0, 0, 0, 0, 0, 0, 0
"BUSMVMAI65", 12.505, 1,    7716.73,  -31.7,    1.0688, 2,    7672.89, -151.8,    1.0627, 3,    7654.24,   87.4,    1.0601
"BUSMVMAI66", 12.505, 1,       7715,  -31.7,    1.0686, 2,    7672.94, -151.8,    1.0627, 3,    7653.48,   87.4,      1.06
"BUSMVMAI67", 12.505, 1,    7713.13,  -31.7,    1.0683, 2,       7673, -151.8,    1.0627, 3,    7652.66,   87.4,    1.0599
"BUSMVMAI878", 12.505, 1,    7713.03,  -31.7,    1.0683, 0, 0, 0, 0, 0, 0, 0, 0
"BUSMVMAI68", 12.505, 1,    7711.76,  -31.8,    1.0681, 2,    7672.99, -151.8,    1.0627, 3,    7652.06,   87.4,    1.0598
"BUSMVMAI706", 12.505, 1,    7713.13,  -31.7,    1.0683, 2,       7673, -151.8,    1.0627, 3,    7652.65,   87.4,    1.0599
"BUSMVMAI876", 12.505, 3,    7657.96,   87.4,    1.0607, 0, 0, 0, 0, 0, 0, 0, 0
"BUSMVMAI875", 12.505, 3,    7657.66,   87.4,    1.0606, 0, 0, 0, 0, 0, 0, 0, 0
"BUSMVMAI877", 12.505, 3,    7657.56,   87.4,    1.0606, 0, 0, 0, 0, 0, 0, 0, 0
"BUSMVMAI883", 12.505, 3,    7657.32,   87.4,    1.0606, 0, 0, 0, 0, 0, 0, 0, 0
"BUSMVMAI884", 12.505, 3,    7657.55,   87.4,    1.0606, 0, 0, 0, 0, 0, 0, 0, 0
"BUSMVMAI886", 12.505, 3,    7657.55,   87.4,    1.0606, 0, 0, 0, 0, 0, 0, 0, 0
"BUSMVMAI885", 12.505, 1,    7712.87,  -31.7,    1.0683, 0, 0, 0, 0, 0, 0, 0, 0
"BUSMVMAI879", 12.505, 3,    7654.81,   87.4,    1.0602, 0, 0, 0, 0, 0, 0, 0, 0
"BUSMVMAI881", 12.505, 3,    7654.74,   87.4,    1.0602, 0, 0, 0, 0, 0, 0, 0, 0
"BUSMVMAI888", 12.505, 3,    7654.74,   87.4,    1.0602, 0, 0, 0, 0, 0, 0, 0, 0
"BUSMVMAI882", 12.505, 3,    7654.67,   87.4,    1.0602, 0, 0, 0, 0, 0, 0, 0, 0
"BUSMVMAI944", 12.505, 3,    7654.67,   87.4,    1.0602, 0, 0, 0, 0, 0, 0, 0, 0
"BUSMVMAI889", 12.505, 3,    7657.11,   87.4,    1.0605, 0, 0, 0, 0, 0, 0, 0, 0
"BUSMVMAI2183", 12.505, 3,    7657.54,   87.4,    1.0606, 0, 0, 0, 0, 0, 0, 0, 0
"BUSMVMAI2184", 12.505, 3,    7657.54,   87.4,    1.0606, 0, 0, 0, 0, 0, 0, 0, 0
"BUSMVMAI71", 12.505, 1,    7710.43,  -31.8,    1.0679, 2,    7672.95, -151.8,    1.0627, 3,    7651.47,   87.4,    1.0598
"BUSMVMAI2182", 12.505, 1,    7712.87,  -31.7,    1.0683, 0, 0, 0, 0, 0, 0, 0, 0
"BUSMVMAI2185", 12.505, 1,    7712.87,  -31.7,    1.0683, 0, 0, 0, 0, 0, 0, 0, 0
"BUSMVMAI2186", 12.505, 1,    7712.79,  -31.7,    1.0683, 0, 0, 0, 0, 0, 0, 0, 0
"BUSMVMAI887", 12.505, 3,    7657.52,   87.4,    1.0606, 0, 0, 0, 0, 0, 0, 0, 0
"BUSMVMAI892", 12.505, 3,     7657.5,   87.4,    1.0606, 0, 0, 0, 0, 0, 0, 0, 0
"BUSMVMAI897", 12.505, 3,    7654.66,   87.4,    1.0602, 0, 0, 0, 0, 0, 0, 0, 0
"BUSMVMAI890", 12.505, 3,    7656.93,   87.4,    1.0605, 0, 0, 0, 0, 0, 0, 0, 0
"BUSMVMAI891", 12.505, 3,    7656.81,   87.4,    1.0605, 0, 0, 0, 0, 0, 0, 0, 0
"BUSMVMAI896", 12.505, 3,    7656.76,   87.4,    1.0605, 0, 0, 0, 0, 0, 0, 0, 0
"BUSMVMAI893", 12.505, 3,    7657.48,   87.4,    1.0606, 0, 0, 0, 0, 0, 0, 0, 0
"BUSMVMAI894", 12.505, 3,    7657.45,   87.4,    1.0606, 0, 0, 0, 0, 0, 0, 0, 0
"BUSMVMAI895", 12.505, 3,    7657.45,   87.4,    1.0606, 0, 0, 0, 0, 0, 0, 0, 0
"BUSMVMAI898", 12.505, 3,    7657.45,   87.4,    1.0606, 0, 0, 0, 0, 0, 0, 0, 0
"BUSMVMAI70", 12.505, 1,    7713.14,  -31.7,    1.0683, 2,       7673, -151.8,    1.0627, 3,    7652.62,   87.4,    1.0599
"BUSMVMAI69", 12.505, 1,    7713.14,  -31.7,    1.0683, 2,       7673, -151.8,    1.0627, 3,    7652.61,   87.4,    1.0599
"BUSMVMAI708", 12.505, 1,    7713.14,  -31.7,    1.0683, 2,       7673, -151.8,    1.0627, 3,    7652.62,   87.4,    1.0599
"BUSMVMAI72", 12.505, 1,    7708.68,  -31.8,    1.0677, 2,     7672.9, -151.8,    1.0627, 3,     7650.7,   87.4,    1.0597
"BUSMVMAI73", 12.505, 1,    7707.01,  -31.8,    1.0675, 2,    7672.88, -151.8,    1.0627, 3,    7650.05,   87.4,    1.0596
"BUSMVMAI134", 12.505, 1,    7708.68,  -31.8,    1.0677, 2,     7672.9, -151.8,    1.0627, 3,     7650.7,   87.4,    1.0597
"BUSMVMAI900", 12.505, 3,    7654.57,   87.4,    1.0602, 0, 0, 0, 0, 0, 0, 0, 0
"BUSMVMAI904", 12.505, 3,    7657.44,   87.4,    1.0606, 0, 0, 0, 0, 0, 0, 0, 0
"BUSMVMAI75", 12.505, 1,     7706.2,  -31.8,    1.0673, 2,    7672.94, -151.8,    1.0627, 3,    7649.72,   87.4,    1.0595
"BUSMVMAI718", 12.505, 1,    7707.01,  -31.8,    1.0675, 2,    7672.88, -151.8,    1.0627, 3,    7650.05,   87.4,    1.0596
"BUSMVMAI899", 12.505, 3,    7654.57,   87.4,    1.0602, 0, 0, 0, 0, 0, 0, 0, 0
"BUSMVMAI902", 12.505, 3,    7654.53,   87.4,    1.0602, 0, 0, 0, 0, 0, 0, 0, 0
"BUSMVMAI901", 12.505, 3,     7654.5,   87.4,    1.0602, 0, 0, 0, 0, 0, 0, 0, 0
"BUSMVMAI903", 12.505, 3,    7654.43,   87.4,    1.0602, 0, 0, 0, 0, 0, 0, 0, 0
"BUSMVMAI905", 12.505, 3,    7654.37,   87.4,    1.0602, 0, 0, 0, 0, 0, 0, 0, 0
"BUSMVMAI907", 12.505, 3,    7654.43,   87.4,    1.0602, 0, 0, 0, 0, 0, 0, 0, 0
"BUSMVMAI906", 12.505, 3,    7654.36,   87.4,    1.0602, 0, 0, 0, 0, 0, 0, 0, 0
"BUSMVMAI946", 12.505, 3,    7654.36,   87.4,    1.0602, 0, 0, 0, 0, 0, 0, 0, 0
"BUSMVMAI74", 12.505, 1,     7706.2,  -31.8,    1.0673, 2,    7672.94, -151.8,    1.0627, 3,    7649.72,   87.4,    1.0595
"BUSMVMAI76", 12.505, 1,    7706.05,  -31.8,    1.0673, 2,    7673.05, -151.8,    1.0627, 3,    7649.64,   87.4,    1.0595
"BUSMVMAI77", 12.505, 1,    7705.74,  -31.8,    1.0673, 2,     7672.9, -151.8,    1.0627, 3,    7649.55,   87.4,    1.0595
"BUSMVMAI79", 12.505, 1,    7706.03,  -31.8,    1.0673, 2,    7673.06, -151.8,    1.0628, 3,    7649.63,   87.4,    1.0595
"BUSMVMAI81", 12.505, 1,    7705.71,  -31.8,    1.0673, 2,    7672.78, -151.8,    1.0627, 3,    7649.59,   87.4,    1.0595
"BUSMVMAI91", 12.505, 1,    7704.56,  -31.8,    1.0671, 2,    7672.91, -151.8,    1.0627, 3,    7649.05,   87.4,    1.0594
"BUSMVMAI78", 12.505, 1,    7705.75,  -31.8,    1.0673, 2,    7673.27, -151.8,    1.0628, 3,    7649.46,   87.4,    1.0595
"BUSMVMAI80", 12.505, 1,    7705.47,  -31.8,    1.0672, 2,    7673.48, -151.8,    1.0628, 3,     7649.3,   87.4,    1.0595
"BUSMVMAI908", 12.505, 1,    7705.31,  -31.8,    1.0672, 0, 0, 0, 0, 0, 0, 0, 0
"BUSMVMAI89", 12.505, 1,    7705.39,  -31.8,    1.0672, 2,    7673.54, -151.8,    1.0628, 3,    7649.22,   87.4,    1.0594
"BUSMVMAI949", 12.505, 3,    7654.43,   87.4,    1.0602, 0, 0, 0, 0, 0, 0, 0, 0
"BUSMVMAI82", 12.505, 1,    7705.69,  -31.8,    1.0673, 2,    7672.69, -151.8,    1.0627, 3,    7649.62,   87.4,    1.0595
"BUSMVMAI83", 12.505, 1,     7705.7,  -31.8,    1.0673, 2,    7672.66, -151.8,    1.0627, 3,    7649.61,   87.4,    1.0595
"BUSMVMAI86", 12.505, 1,     7705.7,  -31.8,    1.0673, 2,    7672.63, -151.8,    1.0627, 3,    7649.59,   87.4,    1.0595
"BUSMVMAI85", 12.505, 1,    7706.97,  -31.8,    1.0674, 2,    7672.75, -151.8,    1.0627, 3,    7650.01,   87.4,    1.0596
"BUSMVMAI84", 12.505, 1,    7706.89,  -31.8,    1.0674, 2,    7672.63, -151.8,    1.0627, 3,    7650.01,   87.4,    1.0596
"BUSMVMAI93", 12.505, 1,    7706.84,  -31.8,    1.0674, 2,    7672.57, -151.8,    1.0627, 3,    7650.01,   87.4,    1.0596
"BUSMVMAI2198", 12.505, 2,    7672.63, -151.8,    1.0627, 0, 0, 0, 0, 0, 0, 0, 0
"BUSMVMAI709", 12.505, 1,    7707.01,  -31.8,    1.0675, 2,    7672.88, -151.8,    1.0627, 3,    7650.05,   87.4,    1.0596
"BUSMVMAI88", 12.505, 1,    7705.71,  -31.8,    1.0673, 2,    7672.61, -151.8,    1.0627, 3,    7649.58,   87.4,    1.0595
"BUSMVMAI87", 12.505, 1,    7705.72,  -31.8,    1.0673, 2,    7672.58, -151.8,    1.0627, 3,    7649.57,   87.4,    1.0595
"BUSMVMAI99", 12.505, 1,    7705.72,  -31.8,    1.0673, 2,    7672.56, -151.8,    1.0627, 3,    7649.57,   87.4,    1.0595
"BUSMVMAI722", 12.505, 1,    7705.72,  -31.8,    1.0673, 2,    7672.58, -151.8,    1.0627, 3,    7649.56,   87.4,    1.0595
"BUSMVMAI909", 12.505, 1,    7705.15,  -31.8,    1.0672, 0, 0, 0, 0, 0, 0, 0, 0
"BUSMVMAI90", 12.505, 1,    7705.35,  -31.8,    1.0672, 2,    7673.57, -151.8,    1.0628, 3,    7649.15,   87.4,    1.0594
"BUSMVMAI102", 12.505, 1,    7705.31,  -31.8,    1.0672, 2,    7673.61, -151.8,    1.0628, 3,    7649.06,   87.4,    1.0594
"BUSMVMAI92", 12.505, 1,    7703.54,  -31.8,     1.067, 2,    7672.92, -151.8,    1.0627, 3,    7648.63,   87.4,    1.0594
"BUSMVMAI132", 12.505, 1,    7704.56,  -31.8,    1.0671, 2,    7672.91, -151.8,    1.0627, 3,    7649.05,   87.4,    1.0594
"BUSMVMAI98", 12.505, 1,    7703.54,  -31.8,     1.067, 2,    7672.92, -151.8,    1.0627, 3,    7648.62,   87.4,    1.0594
"BUSMVMAI100", 12.505, 1,    7702.25,  -31.8,    1.0668, 2,    7673.05, -151.8,    1.0627, 3,    7648.01,   87.4,    1.0593
"BUSMVMAI723", 12.505, 1,    7703.54,  -31.8,     1.067, 2,    7672.91, -151.8,    1.0627, 3,    7648.63,   87.4,    1.0594
"BUSMVMAI96", 12.505, 1,     7706.8,  -31.8,    1.0674, 2,    7672.49, -151.8,    1.0627, 3,    7650.01,   87.4,    1.0596
"BUSMVMAI916", 12.505, 1,    7706.83,  -31.8,    1.0674, 0, 0, 0, 0, 0, 0, 0, 0
"BUSMVMAI95", 12.505, 1,    7703.54,  -31.8,     1.067, 2,    7672.81, -151.8,    1.0627, 3,    7648.64,   87.4,    1.0594
"BUSMVMAI94", 12.505, 1,     7703.5,  -31.8,     1.067, 2,    7672.72, -151.8,    1.0627, 3,    7648.69,   87.4,    1.0594
"BUSMVMAI112", 12.505, 1,     7703.5,  -31.8,     1.067, 2,    7672.72, -151.8,    1.0627, 3,    7648.68,   87.4,    1.0594
"BUSMVMAI126", 12.505, 1,    7703.54,  -31.8,     1.067, 2,    7672.82, -151.8,    1.0627, 3,    7648.64,   87.4,    1.0594
"BUSMVMAI97", 12.505, 1,    7706.73,  -31.8,    1.0674, 2,    7672.39, -151.8,    1.0627, 3,    7650.01,   87.4,    1.0596
"BUSMVMAI711", 12.505, 1,     7706.8,  -31.8,    1.0674, 2,     7672.5, -151.8,    1.0627, 3,    7650.01,   87.4,    1.0596
"BUSMVMAI915", 12.505, 1,    7706.73,  -31.8,    1.0674, 0, 0, 0, 0, 0, 0, 0, 0
...
"BUSLVMAI1", 0.20785, 1,    127.317,   87.4,     1.061, 2,    127.332,  -92.6,    1.0611, 0, 0, 0, 0
"BUSLVMAI2", 0.20785, 1,    127.143,   87.2,    1.0595, 2,    127.157,  -92.8,    1.0596, 0, 0, 0, 0
"BUSLVMAI3", 0.20785, 1,    127.283,   87.4,    1.0607, 2,    127.299,  -92.6,    1.0608, 0, 0, 0, 0
"BUSLVMAI4", 0.20785, 1,    127.739,  -32.0,    1.0645, 2,    127.851,  148.0,    1.0654, 0, 0, 0, 0
"BUSLVMAI5", 0.20785, 1,    126.681, -152.0,    1.0557, 2,    126.744,   28.0,    1.0562, 0, 0, 0, 0
"BUSLVMAI6", 0.20785, 1,    127.154,   87.1,    1.0596, 2,    127.169,  -92.9,    1.0597, 0, 0, 0, 0
"BUSLVMAI7", 0.20785, 1,    127.322,   87.4,     1.061, 2,    127.336,  -92.6,    1.0611, 0, 0, 0, 0
"BUSLVMAI8", 0.20785, 1,    126.563,   87.1,    1.0547, 2,    126.583,  -92.9,    1.0549, 0, 0, 0, 0
"BUSLVMAI9", 0.20785, 1,     126.63,   86.8,    1.0553, 2,    126.643,  -93.2,    1.0554, 0, 0, 0, 0
"BUSLVMAI10", 0.20785, 1,    126.675,   86.8,    1.0556, 2,    126.688,  -93.2,    1.0557, 0, 0, 0, 0
"BUSLVMAI11", 0.20785, 1,    127.368, -151.8,    1.0614, 2,    127.381,   28.2,    1.0615, 0, 0, 0, 0
"BUSLVMAI12", 0.20785, 1,    127.318, -151.8,     1.061, 2,    127.334,   28.2,    1.0611, 0, 0, 0, 0
"BUSLVMAI13", 0.20785, 1,    128.378,  -31.6,    1.0698, 2,    128.394,  148.4,    1.0699, 0, 0, 0, 0
"BUSLVMAI14", 0.20785, 1,    128.334,  -31.7,    1.0694, 2,    128.349,  148.3,    1.0696, 0, 0, 0, 0
"BUSLVMAI15", 0.20785, 1,    128.354,  -31.7,    1.0696, 2,    128.368,  148.3,    1.0697, 0, 0, 0, 0
"BUSLVMAI16", 0.20785, 1,    127.288,   87.4,    1.0607, 2,    127.306,  -92.6,    1.0609, 0, 0, 0, 0
"BUSLVMAI17", 0.20785, 1,    126.203,   86.8,    1.0517, 2,    126.238,  -93.2,     1.052, 0, 0, 0, 0
"BUSLVMAI18", 0.20785, 1,    127.208,   87.2,    1.0601, 2,    127.224,  -92.8,    1.0602, 0, 0, 0, 0
"BUSLVMAI19", 0.20785, 1,    127.195,   87.3,      1.06, 2,    127.208,  -92.7,    1.0601, 0, 0, 0, 0
"BUSLVMAI20", 0.20785, 1,    126.978, -151.9,    1.0582, 2,    127.011,   28.1,    1.0584, 0, 0, 0, 0
"BUSLVMAI21", 0.20785, 1,    127.317,   87.4,     1.061, 2,    127.333,  -92.6,    1.0611, 0, 0, 0, 0
"BUSLVMAI22", 0.20785, 1,    128.181,  -31.8,    1.0682, 2,    128.278,  148.3,     1.069, 0, 0, 0, 0
"BUSLVMAI23", 0.20785, 1,     127.26,   87.4,    1.0605, 2,    127.275,  -92.6,    1.0606, 0, 0, 0, 0
"BUSLVMAI24", 0.20785, 1,    127.278,   87.4,    1.0606, 2,    127.293,  -92.6,    1.0608, 0, 0, 0, 0
"BUSLVMAI25", 0.20785, 1,      127.2,   87.3,      1.06, 2,    127.216,  -92.7,    1.0601, 0, 0, 0, 0
"BUSLVMAI26", 0.20785, 1,    127.286, -151.8,    1.0607, 2,    127.302,   28.2,    1.0608, 0, 0, 0, 0
"BUSLVMAI27", 0.20785, 1,    127.402, -151.8,    1.0617, 2,    127.419,   28.2,    1.0618, 0, 0, 0, 0
"BUSLVMAI28", 0.20785, 1,    127.208,   87.2,    1.0601, 2,    127.224,  -92.8,    1.0602, 0, 0, 0, 0
"BUSLVMAI29", 0.20785, 1,    126.761,   86.8,    1.0563, 2,    126.777,  -93.2,    1.0565, 0, 0, 0, 0
"BUSLVMAI30", 0.20785, 1,    127.091, -151.9,    1.0591, 2,    127.105,   28.1,    1.0592, 0, 0, 0, 0
"BUSLVMAI31", 0.20785, 1,    127.286,   87.4,    1.0607, 2,    127.301,  -92.6,    1.0608, 0, 0, 0, 0
"BUSLVMAI32", 0.20785, 1,    128.111,  -31.7,    1.0676, 2,    128.124,  148.2,    1.0677, 0, 0, 0, 0
"BUSLVMAI33", 0.20785, 1,    127.182,   87.2,    1.0598, 2,    127.195,  -92.8,      1.06, 0, 0, 0, 0
"BUSLVMAI34", 0.20785, 1,    125.663,   87.0,    1.0472, 2,     125.82,  -93.0,    1.0485, 0, 0, 0, 0
"BUSLVMAI35", 0.20785, 1,     127.19,   87.4,    1.0599, 2,    127.204,  -92.6,      1.06, 0, 0, 0, 0
"BUSLVMAI36", 0.20785, 1,    127.187,   87.4,    1.0599, 2,    127.201,  -92.6,      1.06, 0, 0, 0, 0
"BUSLVMAI37", 0.20785, 1,    127.179,   87.3,    1.0598, 2,    127.195,  -92.7,      1.06, 0, 0, 0, 0
"BUSLVMAI38", 0.20785, 1,    122.945, -152.8,    1.0245, 2,    122.962,   27.2,    1.0247, 0, 0, 0, 0
"BUSLVMAI39", 0.20785, 1,    127.069, -152.0,    1.0589, 2,    127.082,   28.0,     1.059, 0, 0, 0, 0
"BUSLVMAI40", 0.20785, 1,    126.669,   87.1,    1.0556, 2,    126.733,  -92.9,    1.0561, 0, 0, 0, 0
"BUSLVMAI41", 0.20785, 1,    128.033,  -31.8,    1.0669, 2,    128.049,  148.2,    1.0671, 0, 0, 0, 0
"BUSLVMAI42", 0.20785, 1,    128.097,  -31.8,    1.0675, 2,    128.112,  148.2,    1.0676, 0, 0, 0, 0
"BUSLVMAI43", 0.20785, 1,    128.043,  -31.8,     1.067, 2,    128.058,  148.2,    1.0672, 0, 0, 0, 0
"BUSLVMAI44", 0.20785, 1,    126.917,   87.3,    1.0576, 2,    126.963,  -92.7,     1.058, 0, 0, 0, 0
"BUSLVMAI45", 0.20785, 1,    126.969,   87.3,    1.0581, 2,    126.984,  -92.7,    1.0582, 0, 0, 0, 0
"BUSLVMAI46", 0.20785, 1,    127.108,   87.4,    1.0592, 2,    127.123,  -92.6,    1.0594, 0, 0, 0, 0
"BUSLVMAI47", 0.20785, 1,    127.192,   87.4,    1.0599, 2,    127.207,  -92.6,    1.0601, 0, 0, 0, 0
"BUSLVMAI48", 0.20785, 1,    126.595,   87.1,     1.055, 2,    126.615,  -92.9,    1.0551, 0, 0, 0, 0
"BUSLVMAI49", 0.20785, 1,    128.052,  -31.8,    1.0671, 2,    128.067,  148.2,    1.0672, 0, 0, 0, 0
"BUSLVMAI50", 0.20785, 1,    125.814, -152.3,    1.0484, 2,    125.943,   27.7,    1.0495, 0, 0, 0, 0
"BUSLVMAI51", 0.20785, 1,    127.247,  -32.1,    1.0604, 2,    127.263,  147.9,    1.0605, 0, 0, 0, 0
"BUSLVMAI52", 0.20785, 1,    127.204,   87.4,      1.06, 2,    127.217,  -92.6,    1.0601, 0, 0, 0, 0
"BUSLVMAI53", 0.20785, 1,    127.184,   87.4,    1.0599, 2,    127.199,  -92.6,      1.06, 0, 0, 0, 0
"BUSLVMAI54", 0.20785, 1,     126.28,   87.1,    1.0523, 2,    126.296,  -93.0,    1.0525, 0, 0, 0, 0
"BUSLVMAI55", 0.20785, 1,    128.076,  -31.8,    1.0673, 2,    128.091,  148.2,    1.0674, 0, 0, 0, 0
"BUSLVMAI56", 0.20785, 1,     126.78,   87.2,    1.0565, 2,    126.793,  -92.8,    1.0566, 0, 0, 0, 0
"BUSLVMAI57", 0.20785, 1,    127.085,   87.4,     1.059, 2,      127.1,  -92.6,    1.0592, 0, 0, 0, 0
"BUSLVMAI58", 0.20785, 1,    127.202,   87.4,      1.06, 2,    127.216,  -92.6,    1.0601, 0, 0, 0, 0
"BUSLVMAI59", 0.20785, 1,    128.052,  -31.8,    1.0671, 2,    128.067,  148.2,    1.0672, 0, 0, 0, 0
"BUSLVMAI60", 0.20785, 1,    127.948,  -31.8,    1.0662, 2,    127.961,  148.1,    1.0663, 0, 0, 0, 0
"BUSLVMAI61", 0.20785, 1,    127.077,  -32.2,     1.059, 2,    127.093,  147.8,    1.0591, 0, 0, 0, 0
"BUSLVMAI62", 0.20785, 1,    127.309, -151.9,    1.0609, 2,    127.323,   28.1,     1.061, 0, 0, 0, 0
"BUSLVMAI63", 0.20785, 1,    127.774,  -31.9,    1.0648, 2,    127.798,  148.1,     1.065, 0, 0, 0, 0
"BUSLVMAI64", 0.20785, 1,    127.283, -151.9,    1.0607, 2,    127.296,   28.1,    1.0608, 0, 0, 0, 0
"BUSLVMAI65", 0.20785, 1,    128.028,  -31.8,    1.0669, 2,    128.042,  148.2,     1.067, 0, 0, 0, 0
"BUSLVMAI66", 0.20785, 1,    127.188,   87.4,    1.0599, 2,    127.202,  -92.6,      1.06, 0, 0, 0, 0
"BUSLVMAI67", 0.20785, 1,    127.478,  -32.0,    1.0623, 2,    127.494,  148.0,    1.0624, 0, 0, 0, 0
"BUSLVMAI68", 0.20785, 1,    127.552,  -32.0,    1.0629, 2,    127.565,  148.0,     1.063, 0, 0, 0, 0
"BUSLVMAI69", 0.20785, 1,    127.193,   87.4,    1.0599, 2,    127.206,  -92.6,      1.06, 0, 0, 0, 0
"BUSLVMAI70", 0.20785, 1,     126.59,   87.1,    1.0549, 2,    126.628,  -92.9,    1.0552, 0, 0, 0, 0
"BUSLVMAI71", 0.20785, 1,    127.222,  -32.2,    1.0602, 2,    127.236,  147.8,    1.0603, 0, 0, 0, 0
"BUSLVMAI72", 0.20785, 1,    127.906,  -31.9,    1.0659, 2,    127.919,  148.1,     1.066, 0, 0, 0, 0
"BUSLVMAI73", 0.20785, 1,    127.755,  -31.9,    1.0646, 2,    127.768,  148.1,    1.0647, 0, 0, 0, 0
"BUSLVMAI74", 0.20785, 1,     128.05,  -31.8,    1.0671, 2,    128.066,  148.2,    1.0672, 0, 0, 0, 0
"BUSLVMAI75", 0.20785, 1,    127.017, -152.0,    1.0585, 2,    127.031,   28.0,    1.0586, 0, 0, 0, 0
"BUSLVMAI76", 0.20785, 1,    127.188,   87.4,    1.0599, 2,    127.201,  -92.6,      1.06, 0, 0, 0, 0
"BUSLVMAI77", 0.20785, 1,    127.657,  -31.9,    1.0638, 2,    127.671,  148.1,    1.0639, 0, 0, 0, 0
"BUSLVMAI78", 0.20785, 1,    127.884,  -31.9,    1.0657, 2,    127.897,  148.1,    1.0658, 0, 0, 0, 0
"BUSLVMAI79", 0.20785, 1,    127.092,   87.4,    1.0591, 2,    127.106,  -92.6,    1.0592, 0, 0, 0, 0
"BUSLVMAI80", 0.20785, 1,    125.983,   86.8,    1.0499, 2,    126.017,  -93.2,    1.0501, 0, 0, 0, 0
"BUSLVMAI81", 0.20785, 1,    127.187,   87.4,    1.0599, 2,    127.201,  -92.6,      1.06, 0, 0, 0, 0
"BUSLVMAI82", 0.20785, 1,    126.931,   87.3,    1.0578, 2,    126.947,  -92.7,    1.0579, 0, 0, 0, 0
"BUSLVMAI83", 0.20785, 1,    127.541,  -32.0,    1.0628, 2,    127.561,  148.0,     1.063, 0, 0, 0, 0
"BUSLVMAI84", 0.20785, 1,    126.732,   87.2,    1.0561, 2,    126.746,  -92.8,    1.0562, 0, 0, 0, 0
"BUSLVMAI85", 0.20785, 1,    127.371, -151.8,    1.0614, 2,    127.398,   28.2,    1.0617, 0, 0, 0, 0
"BUSLVMAI86", 0.20785, 1,    127.702,  -31.9,    1.0642, 2,    127.738,  148.1,    1.0645, 0, 0, 0, 0
"BUSLVMAI87", 0.20785, 1,    128.014,  -31.8,    1.0668, 2,    128.063,  148.2,    1.0672, 0, 0, 0, 0
"BUSLVMAI88", 0.20785, 1,    127.239,   87.4,    1.0603, 2,    127.252,  -92.6,    1.0604, 0, 0, 0, 0
"BUSLVMAI89", 0.20785, 1,    127.188,   87.4,    1.0599, 2,    127.201,  -92.6,      1.06, 0, 0, 0, 0
"BUSLVMAI90", 0.20785, 1,    126.689,   87.2,    1.0557, 2,    126.705,  -92.8,    1.0559, 0, 0, 0, 0
"BUSLVMAI91", 0.20785, 1,    127.179,   87.3,    1.0598, 2,    127.195,  -92.7,      1.06, 0, 0, 0, 0
"BUSLVMAI92", 0.20785, 1,    127.679,  -32.0,     1.064, 2,    127.704,  148.0,    1.0642, 0, 0, 0, 0
"BUSLVMAI93", 0.20785, 1,    126.983,   87.3,    1.0582, 2,    126.999,  -92.7,    1.0583, 0, 0, 0, 0
"BUSLVMAI94", 0.20785, 1,     126.65,   87.1,    1.0554, 2,    126.664,  -92.9,    1.0555, 0, 0, 0, 0
"BUSLVMAI95", 0.20785, 1,    127.085,   87.4,     1.059, 2,    127.101,  -92.6,    1.0592, 0, 0, 0, 0
"BUSLVMAI96", 0.20785, 1,    127.208,   87.4,    1.0601, 2,    127.222,  -92.7,    1.0602, 0, 0, 0, 0
"BUSLVMAI97", 0.20785, 1,    127.484, -151.8,    1.0624, 2,    127.499,   28.2,    1.0625, 0, 0, 0, 0
"BUSLVMAI98", 0.20785, 1,    127.484, -151.8,    1.0624, 2,    127.499,   28.2,    1.0625, 0, 0, 0, 0
"BUSLVMAI99", 0.20785, 1,    127.208,   87.4,    1.0601, 2,    127.222,  -92.7,    1.0602, 0, 0, 0, 0
"BUSLVMAI100", 0.20785, 1,    127.075,   87.3,     1.059, 2,    127.089,  -92.7,    1.0591, 0, 0, 0, 0
"BUSLVMAI101", 0.20785, 1,    127.083,   87.4,     1.059, 2,    127.099,  -92.6,    1.0592, 0, 0, 0, 0
"BUSLVMAI102", 0.20785, 1,    127.186,   87.4,    1.0599, 2,    127.202,  -92.6,      1.06, 0, 0, 0, 0
"BUSLVMAI103", 0.20785, 1,    127.045,   87.4,    1.0587, 2,    127.061,  -92.6,    1.0588, 0, 0, 0, 0
"BUSLVMAI104", 0.20785, 1,    126.939,   87.3,    1.0578, 2,    126.953,  -92.7,    1.0579, 0, 0, 0, 0
"BUSLVMAI105", 0.20785, 1,    126.773,   87.2,    1.0564, 2,    126.787,  -92.8,    1.0566, 0, 0, 0, 0
"BUSLVMAI106", 0.20785, 1,    128.004,  -31.8,    1.0667, 2,    128.018,  148.2,    1.0668, 0, 0, 0, 0
"BUSLVMAI107", 0.20785, 1,    127.191,   87.4,    1.0599, 2,    127.205,  -92.6,      1.06, 0, 0, 0, 0
"BUSLVMAI108", 0.20785, 1,    127.096,   87.4,    1.0591, 2,     127.11,  -92.6,    1.0593, 0, 0, 0, 0
"BUSLVMAI109", 0.20785, 1,    127.353,  -32.0,    1.0613, 2,    127.435,  148.0,     1.062, 0, 0, 0, 0
"BUSLVMAI110", 0.20785, 1,    127.562,  -32.0,     1.063, 2,    127.586,  148.0,    1.0632, 0, 0, 0, 0
"BUSLVMAI111", 0.20785, 1,    127.748,  -31.9,    1.0646, 2,    127.764,  148.1,    1.0647, 0, 0, 0, 0
"BUSLVMAI112", 0.20785, 1,    127.904,  -31.8,    1.0659, 2,     127.92,  148.1,     1.066, 0, 0, 0, 0
"BUSLVMAI113", 0.20785, 1,    127.416, -151.8,    1.0618, 2,    127.431,   28.2,    1.0619, 0, 0, 0, 0
"BUSLVMAI114", 0.20785, 1,    126.841,  -32.3,     1.057, 2,    126.856,  147.7,    1.0571, 0, 0, 0, 0
"BUSLVMAI115", 0.20785, 1,    127.749,  -31.9,    1.0646, 2,    127.762,  148.1,    1.0647, 0, 0, 0, 0
"BUSLVMAI116", 0.20785, 1,    127.037,   87.4,    1.0586, 2,     127.05,  -92.6,    1.0588, 0, 0, 0, 0
"BUSLVMAI117", 0.20785, 1,     127.27,  -32.2,    1.0606, 2,    127.299,  147.8,    1.0608, 0, 0, 0, 0
"BUSLVMAI118", 0.20785, 1,    127.379,  -32.0,    1.0615, 2,    127.395,  147.9,    1.0616, 0, 0, 0, 0
"BUSLVMAI119", 0.20785, 1,    126.722,   87.2,     1.056, 2,    126.735,  -92.8,    1.0561, 0, 0, 0, 0
"BUSLVMAI120", 0.20785, 1,    127.748,  -31.9,    1.0646, 2,    127.762,  148.1,    1.0647, 0, 0, 0, 0
"BUSLVMAI121", 0.20785, 1,    127.529, -151.8,    1.0627, 2,    127.545,   28.2,    1.0629, 0, 0, 0, 0
"BUSLVMAI122", 0.20785, 1,    127.022,   87.4,    1.0585, 2,    127.038,  -92.6,    1.0587, 0, 0, 0, 0
"BUSLVMAI123", 0.20785, 1,    127.529, -151.8,    1.0627, 2,    127.543,   28.2,    1.0629, 0, 0, 0, 0
"BUSLVMAI124", 0.20785, 1,    126.274,   87.0,    1.0523, 2,    126.325,  -93.0,    1.0527, 0, 0, 0, 0
"BUSLVMAI125", 0.20785, 1,    126.616,   87.3,    1.0551, 2,    126.632,  -92.7,    1.0553, 0, 0, 0, 0
"BUSLVMAI126", 0.20785, 1,    127.536, -151.8,    1.0628, 2,    127.551,   28.2,    1.0629, 0, 0, 0, 0
"BUSLVMAI127", 0.20785, 1,    127.024,   87.4,    1.0585, 2,    127.038,  -92.6,    1.0587, 0, 0, 0, 0
"BUSLVMAI128", 0.20785, 1,    126.328, -152.3,    1.0527, 2,    126.351,   27.7,    1.0529, 0, 0, 0, 0
"BUSLVMAI129", 0.20785, 1,    127.748,  -31.9,    1.0646, 2,    127.761,  148.1,    1.0647, 0, 0, 0, 0
"BUSLVMAI130", 0.20785, 1,    127.936,  -31.8,    1.0661, 2,    127.951,  148.2,    1.0663, 0, 0, 0, 0
"BUSLVMAI131", 0.20785, 1,    126.736,  -32.3,    1.0561, 2,     126.77,  147.7,    1.0564, 0, 0, 0, 0
"BUSLVMAI132", 0.20785, 1,    127.745,  -31.9,    1.0645, 2,    127.758,  148.1,    1.0647, 0, 0, 0, 0
"BUSLVMAI133", 0.20785, 1,    127.049,   87.4,    1.0587, 2,    127.067,  -92.6,    1.0589, 0, 0, 0, 0
"BUSLVMAI134", 0.20785, 1,    126.698,   87.2,    1.0558, 2,    126.712,  -92.8,    1.0559, 0, 0, 0, 0
"BUSLVMAI135", 0.20785, 1,    126.991,   87.3,    1.0583, 2,    127.007,  -92.7,    1.0584, 0, 0, 0, 0
"BUSLVMAI136", 0.20785, 1,    127.167,  -32.2,    1.0597, 2,    127.208,  147.8,    1.0601, 0, 0, 0, 0
"BUSLVMAI137", 0.20785, 1,    127.148, -152.0,    1.0596, 2,    127.162,   28.0,    1.0597, 0, 0, 0, 0
"BUSLVMAI138", 0.20785, 1,    127.308, -151.9,    1.0609, 2,     127.34,   28.1,    1.0612, 0, 0, 0, 0
"BUSLVMAI139", 0.20785, 1,    127.027, -152.0,    1.0586, 2,    127.044,   28.0,    1.0587, 0, 0, 0, 0
"BUSLVMAI140", 0.20785, 1,     127.22,  -32.1,    1.0602, 2,    127.236,  147.9,    1.0603, 0, 0, 0, 0
"BUSLVMAI141", 0.20785, 1,    127.537, -151.8,    1.0628, 2,    127.551,   28.2,    1.0629, 0, 0, 0, 0
"BUSLVMAI142", 0.20785, 1,    126.972, -152.0,    1.0581, 2,    126.986,   28.0,    1.0582, 0, 0, 0, 0
"BUSLVMAI143", 0.20785, 1,    127.379, -151.9,    1.0615, 2,    127.395,   28.1,    1.0616, 0, 0, 0, 0
"BUSLVMAI144", 0.20785, 1,    127.025,   87.4,    1.0585, 2,     127.04,  -92.6,    1.0587, 0, 0, 0, 0
"BUSLVMAI145", 0.20785, 1,    127.877,  -31.9,    1.0656, 2,    127.893,  148.1,    1.0658, 0, 0, 0, 0
"BUSLVMAI146", 0.20785, 1,    127.522, -151.8,    1.0627, 2,    127.536,   28.2,    1.0628, 0, 0, 0, 0
"BUSLVMAI147", 0.20785, 1,    127.011,  -32.3,    1.0584, 2,    127.025,  147.7,    1.0585, 0, 0, 0, 0
"BUSLVMAI148", 0.20785, 1,    126.979,   87.4,    1.0582, 2,    126.994,  -92.6,    1.0583, 0, 0, 0, 0
"BUSLVMAI149", 0.20785, 1,    127.062, -152.0,    1.0589, 2,    127.075,   28.0,     1.059, 0, 0, 0, 0
"BUSLVMAI150", 0.20785, 1,    127.221,  -32.2,    1.0602, 2,    127.245,  147.8,    1.0604, 0, 0, 0, 0
"BUSLVMAI151", 0.20785, 1,    126.994, -152.0,    1.0583, 2,    127.007,   28.0,    1.0584, 0, 0, 0, 0
"BUSLVMAI152", 0.20785, 1,    127.737,  -31.9,    1.0645, 2,    127.753,  148.1,    1.0646, 0, 0, 0, 0
"BUSLVMAI153", 0.20785, 1,    125.984,   87.0,    1.0499, 2,        126,  -93.0,      1.05, 0, 0, 0, 0
"BUSLVMAI154", 0.20785, 1,    127.042,   87.4,    1.0587, 2,    127.058,  -92.6,    1.0588, 0, 0, 0, 0
"BUSLVMAI155", 0.20785, 1,     127.15,  -32.2,    1.0596, 2,    127.164,  147.8,    1.0597, 0, 0, 0, 0
"BUSLVMAI156", 0.20785, 1,    127.752,  -31.9,    1.0646, 2,    127.766,  148.1,    1.0647, 0, 0, 0, 0
"BUSLVMAI157", 0.20785, 1,    126.714,  -32.3,    1.0559, 2,     126.73,  147.7,    1.0561, 0, 0, 0, 0
"BUSLVMAI158", 0.20785, 1,    127.455, -151.9,    1.0621, 2,    127.468,   28.1,    1.0622, 0, 0, 0, 0
"BUSLVMAI159", 0.20785, 1,    127.439, -151.8,     1.062, 2,    127.452,   28.2,    1.0621, 0, 0, 0, 0
"BUSLVMAI160", 0.20785, 1,    127.622,  -32.0,    1.0635, 2,     127.64,  148.0,    1.0637, 0, 0, 0, 0
"BUSLVMAI161", 0.20785, 1,    127.394,  -32.1,    1.0616, 2,    127.435,  147.9,     1.062, 0, 0, 0, 0
"BUSLVMAI162", 0.20785, 1,    127.576,  -32.0,    1.0631, 2,    127.592,  148.0,    1.0633, 0, 0, 0, 0
"BUSLVMAI163", 0.20785, 1,    127.737,  -31.9,    1.0645, 2,    127.753,  148.1,    1.0646, 0, 0, 0, 0
"BUSLVMAI164", 0.20785, 1,    127.976,  -31.8,    1.0665, 2,    127.989,  148.2,    1.0666, 0, 0, 0, 0
"BUSLVMAI165", 0.20785, 1,    126.971,  -32.2,    1.0581, 2,    127.046,  147.8,    1.0587, 0, 0, 0, 0
"BUSLVMAI166", 0.20785, 1,    127.481,  -32.1,    1.0623, 2,    127.519,  147.9,    1.0627, 0, 0, 0, 0
"BUSLVMAI167", 0.20785, 1,    126.609,   87.1,    1.0551, 2,    126.641,  -92.9,    1.0553, 0, 0, 0, 0
"BUSLVMAI168", 0.20785, 1,    126.841,   87.3,     1.057, 2,    126.855,  -92.7,    1.0571, 0, 0, 0, 0
"BUSLVMAI169", 0.20785, 1,    126.086,  -32.2,    1.0507, 2,    126.104,  147.7,    1.0509, 0, 0, 0, 0
"BUSLVMAI170", 0.20785, 1,     127.74,  -31.9,    1.0645, 2,    127.754,  148.1,    1.0646, 0, 0, 0, 0
"BUSLVMAI171", 0.20785, 1,    127.103,  -32.1,    1.0592, 2,    127.247,  147.9,    1.0604, 0, 0, 0, 0
"BUSLVMAI172", 0.20785, 1,    126.564,   87.1,    1.0547, 2,    126.578,  -92.9,    1.0548, 0, 0, 0, 0
"BUSLVMAI173", 0.20785, 1,    127.021,   87.4,    1.0585, 2,    127.037,  -92.6,    1.0586, 0, 0, 0, 0
"BUSLVMAI174", 0.20785, 1,    127.321,  -32.1,     1.061, 2,    127.357,  147.9,    1.0613, 0, 0, 0, 0
"BUSLVMAI175", 0.20785, 1,    127.111,  -32.2,    1.0593, 2,    127.125,  147.8,    1.0594, 0, 0, 0, 0
"BUSLVMAI176", 0.20785, 1,    126.863,   87.3,    1.0572, 2,    126.876,  -92.7,    1.0573, 0, 0, 0, 0
"BUSLVMAI177", 0.20785, 1,    126.965,   87.3,     1.058, 2,    126.978,  -92.7,    1.0582, 0, 0, 0, 0
"BUSLVMAI178", 0.20785, 1,    127.463, -151.8,    1.0622, 2,    127.476,   28.1,    1.0623, 0, 0, 0, 0
"BUSLVMAI179", 0.20785, 1,    127.218, -151.9,    1.0601, 2,    127.231,   28.1,    1.0603, 0, 0, 0, 0
"BUSLVMAI180", 0.20785, 1,    127.752,  -31.9,    1.0646, 2,    127.765,  148.1,    1.0647, 0, 0, 0, 0
"BUSLVMAI181", 0.20785, 1,    127.738,  -31.9,    1.0645, 2,    127.752,  148.1,    1.0646, 0, 0, 0, 0
"BUSLVMAI182", 0.20785, 1,    126.938,  -32.3,    1.0578, 2,     127.05,  147.7,    1.0588, 0, 0, 0, 0
"BUSLVMAI183", 0.20785, 1,    126.924,   87.3,    1.0577, 2,    126.938,  -92.7,    1.0578, 0, 0, 0, 0
"BUSLVMAI184", 0.20785, 1,    127.942,  -31.8,    1.0662, 2,    127.955,  148.2,    1.0663, 0, 0, 0, 0
"BUSLVMAI185", 0.20785, 1,     127.12, -152.0,    1.0593, 2,    127.133,   28.0,    1.0594, 0, 0, 0, 0
"BUSLVMAI186", 0.20785, 1,    127.046,   87.4,    1.0587, 2,    127.061,  -92.6,    1.0588, 0, 0, 0, 0
"BUSLVMAI187", 0.20785, 1,    126.867,   87.3,    1.0572, 2,     126.88,  -92.7,    1.0573, 0, 0, 0, 0
"BUSLVMAI188", 0.20785, 1,     127.46, -151.8,    1.0622, 2,    127.476,   28.2,    1.0623, 0, 0, 0, 0
"BUSLVMAI189", 0.20785, 1,    127.747,  -31.9,    1.0646, 2,    127.763,  148.1,    1.0647, 0, 0, 0, 0
"BUSLVMAI190", 0.20785, 1,    127.447, -151.8,    1.0621, 2,    127.463,   28.2,    1.0622, 0, 0, 0, 0
"BUSLVMAI191", 0.20785, 1,    127.042,   87.4,    1.0587, 2,    127.058,  -92.6,    1.0588, 0, 0, 0, 0
"BUSLVMAI192", 0.20785, 1,    127.733,  -31.9,    1.0644, 2,    127.749,  148.1,    1.0646, 0, 0, 0, 0
"BUSLVMAI193", 0.20785, 1,    127.741,  -31.9,    1.0645, 2,    127.758,  148.1,    1.0646, 0, 0, 0, 0
"BUSLVMAI194", 0.20785, 1,    126.951,   87.4,    1.0579, 2,    126.967,  -92.6,    1.0581, 0, 0, 0, 0
"BUSLVMAI195", 0.20785, 1,    127.044,   87.4,    1.0587, 2,    127.059,  -92.6,    1.0588, 0, 0, 0, 0
"BUSLVMAI196", 0.20785, 1,    127.413, -151.8,    1.0618, 2,    127.429,   28.2,    1.0619, 0, 0, 0, 0
"BUSLVMAI197", 0.20785, 1,    127.259, -151.9,    1.0605, 2,    127.273,   28.1,    1.0606, 0, 0, 0, 0
"BUSLVMAI198", 0.20785, 1,    127.413, -151.8,    1.0618, 2,    127.428,   28.2,    1.0619, 0, 0, 0, 0
"BUSLVMAI199", 0.20785, 1,    127.414, -151.8,    1.0618, 2,    127.429,   28.2,    1.0619, 0, 0, 0, 0
"BUSLVMAI200", 0.20785, 1,    127.733,  -31.9,    1.0644, 2,    127.748,  148.1,    1.0646, 0, 0, 0, 0
...
